@<TRIPOS>MOLECULE
datasets_res15_filtered\5SRF\5SRF_water.pdb
 498 0 0 0 0
SMALL
GASTEIGER

@<TRIPOS>ATOM
      1  O        -28.0400  -24.2840   21.4070 O.3   301  HOH301      0.0000
      2  O        -46.5960  -17.0730   19.4810 O.3   302  HOH302      0.0000
      3  O        -48.3000  -39.6200    1.5550 O.3   303  HOH303      0.0000
      4  O        -22.9410  -36.5440    4.5510 O.3   304  HOH304      0.0000
      5  O        -39.8610  -30.3360  -11.0450 O.3   305  HOH305      0.0000
      6  O        -39.4290  -30.3820   18.4170 O.3   306  HOH306      0.0000
      7  O        -54.1730  -25.7190   14.5140 O.3   307  HOH307      0.0000
      8  O        -42.7280  -26.8810    1.2560 O.3   308  HOH308      0.0000
      9  O        -54.9820   -1.9580    5.9200 O.3   309  HOH309      0.0000
     10  O        -31.0990  -14.1700   -7.8000 O.3   310  HOH310      0.0000
     11  O        -44.8890  -15.4560   -8.9480 O.3   311  HOH311      0.0000
     12  O        -31.9290  -24.5780   -8.2980 O.3   312  HOH312      0.0000
     13  O        -49.8940  -21.9310   19.7420 O.3   313  HOH313      0.0000
     14  O        -32.1810  -29.1790   19.5700 O.3   314  HOH314      0.0000
     15  O        -38.0410  -16.3550   20.5580 O.3   315  HOH315      0.0000
     16  O        -48.5820  -29.1350   18.5190 O.3   316  HOH316      0.0000
     17  O        -35.1680  -40.7400   10.9950 O.3   317  HOH317      0.0000
     18  O        -47.2170   -6.8470   10.9710 O.3   318  HOH318      0.0000
     19  O        -25.0670  -17.9130   -1.0630 O.3   319  HOH319      0.0000
     20  O        -26.3450  -27.3120   15.9140 O.3   320  HOH320      0.0000
     21  O        -54.5110   -6.0810    7.8620 O.3   321  HOH321      0.0000
     22  O        -43.4260  -10.3680   -8.1700 O.3   322  HOH322      0.0000
     23  O        -25.0230  -25.6740   14.3500 O.3   323  HOH323      0.0000
     24  O        -39.3820   -8.2370    0.1840 O.3   324  HOH324      0.0000
     25  O        -26.2650  -13.3820    8.5720 O.3   325  HOH325      0.0000
     26  O        -30.3430  -29.6640   17.5550 O.3   326  HOH326      0.0000
     27  O        -31.8840  -36.4750   -0.0670 O.3   327  HOH327      0.0000
     28  O        -22.4210  -25.6300    7.6030 O.3   328  HOH328      0.0000
     29  O        -41.2900  -44.8990    3.9470 O.3   329  HOH329      0.0000
     30  O        -42.5010  -32.4570   -2.3620 O.3   330  HOH330      0.0000
     31  O        -58.2140  -17.0540    3.6520 O.3   331  HOH331      0.0000
     32  O        -26.5640  -27.2540   -4.2050 O.3   332  HOH332      0.0000
     33  O        -39.0570  -23.3210   22.6080 O.3   333  HOH333      0.0000
     34  O        -40.7410   -5.4190    2.7310 O.3   334  HOH334      0.0000
     35  O        -42.9960  -31.1560   -5.7420 O.3   335  HOH335      0.0000
     36  O        -35.9380  -45.0890    3.2840 O.3   336  HOH336      0.0000
     37  O        -33.6790  -10.8380    0.6210 O.3   337  HOH337      0.0000
     38  O        -49.3890   -5.8080    7.7630 O.3   338  HOH338      0.0000
     39  O        -41.9250  -25.8630   24.0630 O.3   339  HOH339      0.0000
     40  O        -42.0440  -23.1840   -1.3080 O.3   340  HOH340      0.0000
     41  O        -45.9070  -39.1420    9.8520 O.3   341  HOH341      0.0000
     42  O        -44.2600  -16.0950  -12.6350 O.3   342  HOH342      0.0000
     43  O        -55.8350  -17.5480    2.4450 O.3   343  HOH343      0.0000
     44  O        -46.6290  -28.4290  -13.9650 O.3   344  HOH344      0.0000
     45  O        -40.0140  -43.7100    1.1930 O.3   345  HOH345      0.0000
     46  O        -52.6730  -12.6750   15.6110 O.3   346  HOH346      0.0000
     47  O        -43.5640    0.3760    3.5930 O.3   347  HOH347      0.0000
     48  O        -42.3390  -20.3770   -1.2500 O.3   348  HOH348      0.0000
     49  O        -34.3180  -35.3190   20.3680 O.3   349  HOH349      0.0000
     50  O        -51.5550   -0.0350    7.2280 O.3   350  HOH350      0.0000
     51  O        -43.4160   -4.6240   -4.4300 O.3   351  HOH351      0.0000
     52  O        -33.6550  -45.8280    5.4660 O.3   352  HOH352      0.0000
     53  O        -48.7100   -1.8190    6.0970 O.3   354  HOH354      0.0000
     54  O        -55.0780  -11.2200   -1.0030 O.3   355  HOH355      0.0000
     55  O        -56.3430   -7.0020    5.7460 O.3   356  HOH356      0.0000
     56  O        -30.4800  -13.3400   -1.7360 O.3   357  HOH357      0.0000
     57  O        -24.6940  -23.8170   -4.3360 O.3   358  HOH358      0.0000
     58  O        -38.0260  -36.7150   -5.9440 O.3   359  HOH359      0.0000
     59  O        -31.7270   -8.5970    7.6290 O.3   360  HOH360      0.0000
     60  O        -33.8120  -15.9020  -13.4950 O.3   361  HOH361      0.0000
     61  O        -27.4580  -36.5730   -1.9700 O.3   362  HOH362      0.0000
     62  O        -22.4750  -22.4810    9.2390 O.3   363  HOH363      0.0000
     63  O        -46.4300  -19.8400   -6.2020 O.3   364  HOH364      0.0000
     64  O        -36.3520  -29.2800   -8.8470 O.3   365  HOH365      0.0000
     65  O        -22.0540  -23.4990   -1.1990 O.3   366  HOH366      0.0000
     66  O        -38.2190  -24.2950  -13.6890 O.3   367  HOH367      0.0000
     67  O        -53.8750  -25.8440    9.7590 O.3   368  HOH368      0.0000
     68  O        -23.0640  -34.5790    6.4990 O.3   369  HOH369      0.0000
     69  O        -36.2580  -37.4640   12.7410 O.3   370  HOH370      0.0000
     70  O        -47.4940  -13.5690    9.0700 O.3   371  HOH371      0.0000
     71  O        -25.1070  -27.4020    5.7070 O.3   372  HOH372      0.0000
     72  O        -25.1100  -22.1290   12.2080 O.3   373  HOH373      0.0000
     73  O        -25.5970  -15.2590    8.5710 O.3   374  HOH374      0.0000
     74  O        -52.6290  -10.2390   -2.2070 O.3   375  HOH375      0.0000
     75  O        -56.4120  -28.8570    8.8960 O.3   376  HOH376      0.0000
     76  O        -52.8650   -0.4460   -2.3530 O.3   377  HOH377      0.0000
     77  O        -29.1670  -30.8890   -6.6930 O.3   378  HOH378      0.0000
     78  O        -52.2620   -1.0070    3.5280 O.3   379  HOH379      0.0000
     79  O        -41.8860   -7.1040   10.5590 O.3   380  HOH380      0.0000
     80  O        -48.0200  -19.9940   -1.0030 O.3   381  HOH381      0.0000
     81  O        -37.2350  -10.7300    5.0800 O.3   382  HOH382      0.0000
     82  O        -31.0830  -25.8590  -10.8450 O.3   383  HOH383      0.0000
     83  O        -22.3380  -27.9530    1.7700 O.3   384  HOH384      0.0000
     84  O        -40.7980  -29.7950    3.9250 O.3   385  HOH385      0.0000
     85  O        -23.1970  -30.0690   -3.6000 O.3   386  HOH386      0.0000
     86  O        -33.7570  -16.8460   14.8460 O.3   387  HOH387      0.0000
     87  O        -43.6380  -18.7130   -6.5380 O.3   388  HOH388      0.0000
     88  O        -54.6890  -23.1930   15.7970 O.3   389  HOH389      0.0000
     89  O        -37.2040  -12.6800   -9.1110 O.3   390  HOH390      0.0000
     90  O        -35.0370  -12.5990   -5.9170 O.3   391  HOH391      0.0000
     91  O        -48.9700  -24.3440   -6.8050 O.3   392  HOH392      0.0000
     92  O        -56.9710  -21.6410    2.4650 O.3   393  HOH393      0.0000
     93  O        -51.3540  -29.3000    8.2520 O.3   394  HOH394      0.0000
     94  O        -43.7660  -25.4690   -0.8160 O.3   395  HOH395      0.0000
     95  O        -36.6210  -20.1150   15.2530 O.3   396  HOH396      0.0000
     96  O        -32.3420  -21.7410   22.5690 O.3   397  HOH397      0.0000
     97  O        -35.1920  -11.5800    6.7980 O.3   398  HOH398      0.0000
     98  O        -46.4290  -35.5720    9.4740 O.3   399  HOH399      0.0000
     99  O        -45.8380   -2.7410    5.6560 O.3   400  HOH400      0.0000
    100  O        -26.8280  -19.6410   13.5200 O.3   401  HOH401      0.0000
    101  O        -45.8730  -10.2590   16.2890 O.3   402  HOH402      0.0000
    102  O        -43.0790   -6.2780   -1.2000 O.3   403  HOH403      0.0000
    103  O        -33.3600  -32.9120   -9.2990 O.3   404  HOH404      0.0000
    104  O        -46.0230  -33.3660   13.6150 O.3   405  HOH405      0.0000
    105  O        -42.3820   -6.8310    6.5570 O.3   406  HOH406      0.0000
    106  O        -38.4600  -17.1710  -13.4120 O.3   407  HOH407      0.0000
    107  O        -59.1300  -21.5530   10.8480 O.3   408  HOH408      0.0000
    108  O        -32.4240  -35.7640   18.0710 O.3   409  HOH409      0.0000
    109  O        -38.8260  -37.9350   12.0350 O.3   410  HOH410      0.0000
    110  O        -34.2980  -14.2930   13.8080 O.3   411  HOH411      0.0000
    111  O        -48.3620    2.4130   -0.0840 O.3   412  HOH412      0.0000
    112  O        -47.5910  -23.0490    0.4300 O.3   413  HOH413      0.0000
    113  O        -19.6870  -29.9760   12.3760 O.3   414  HOH414      0.0000
    114  O        -44.9390  -30.1400    7.6160 O.3   415  HOH415      0.0000
    115  O        -43.4770  -28.6070    6.1770 O.3   416  HOH416      0.0000
    116  O        -30.6370  -22.6000   -7.3990 O.3   417  HOH417      0.0000
    117  O        -28.7250  -20.4290   -8.3870 O.3   418  HOH418      0.0000
    118  O        -55.8030  -20.9220    4.8910 O.3   419  HOH419      0.0000
    119  O        -41.0090  -37.7090   13.7640 O.3   420  HOH420      0.0000
    120  O        -30.6830  -34.0270   -0.8690 O.3   421  HOH421      0.0000
    121  O        -40.9980  -17.2750   20.0400 O.3   422  HOH422      0.0000
    122  O        -46.2470  -13.6490   17.5090 O.3   423  HOH423      0.0000
    123  O        -24.3510  -23.8590    3.5600 O.3   424  HOH424      0.0000
    124  O        -33.7830  -11.8830    3.9140 O.3   425  HOH425      0.0000
    125  O        -22.7880  -29.2170   15.0320 O.3   426  HOH426      0.0000
    126  O        -47.1130  -39.1810    6.0660 O.3   427  HOH427      0.0000
    127  O        -48.5930  -17.4680    0.1240 O.3   428  HOH428      0.0000
    128  O        -43.9400  -29.9260  -11.2850 O.3   429  HOH429      0.0000
    129  O        -50.6230  -13.4870  -11.5450 O.3   430  HOH430      0.0000
    130  O        -44.0700  -33.3430    2.8950 O.3   431  HOH431      0.0000
    131  O        -47.3930  -28.1420   -0.6960 O.3   432  HOH432      0.0000
    132  O        -21.3390  -30.3700    8.2050 O.3   433  HOH433      0.0000
    133  O        -24.1170  -20.4530   -0.5700 O.3   434  HOH434      0.0000
    134  O        -44.7010  -32.0940   15.8200 O.3   435  HOH435      0.0000
    135  O        -61.0830  -28.1960    9.5370 O.3   436  HOH436      0.0000
    136  O        -45.2640  -16.4770   -6.3760 O.3   437  HOH437      0.0000
    137  O        -31.4690  -14.0320   14.3260 O.3   438  HOH438      0.0000
    138  O        -48.3840  -20.3820   -4.0630 O.3   439  HOH439      0.0000
    139  O        -36.0680   -3.4620   -5.7460 O.3   440  HOH440      0.0000
    140  O        -40.1440  -11.7880   -9.1870 O.3   441  HOH441      0.0000
    141  O        -39.2010   -9.3300   -2.3340 O.3   442  HOH442      0.0000
    142  O        -23.2770  -16.6610    7.7590 O.3   443  HOH443      0.0000
    143  O        -39.4730   -7.6220    6.1670 O.3   444  HOH444      0.0000
    144  O        -52.4000  -21.6740   19.2090 O.3   445  HOH445      0.0000
    145  O        -39.3530  -45.7640    8.3260 O.3   446  HOH446      0.0000
    146  O        -51.3710  -28.4140    3.8590 O.3   447  HOH447      0.0000
    147  O        -30.2170  -28.2840   21.2070 O.3   448  HOH448      0.0000
    148  O        -43.8060  -10.3360   16.4890 O.3   449  HOH449      0.0000
    149  O        -22.4150  -34.1890   -0.7610 O.3   450  HOH450      0.0000
    150  O        -33.6740  -32.7240   17.9290 O.3   451  HOH451      0.0000
    151  O        -34.9550  -23.0730   21.9850 O.3   452  HOH452      0.0000
    152  O        -30.3380  -12.1020   13.0530 O.3   453  HOH453      0.0000
    153  O        -35.6110   -6.7020   -2.7480 O.3   454  HOH454      0.0000
    154  O        -23.4200  -21.0480    2.0760 O.3   455  HOH455      0.0000
    155  O        -36.3520  -20.7880   17.9170 O.3   456  HOH456      0.0000
    156  O        -28.1570  -34.8780   -1.0130 O.3   457  HOH457      0.0000
    157  O        -22.9410  -34.1240    3.7520 O.3   458  HOH458      0.0000
    158  O        -36.2600  -10.0640    0.2350 O.3   459  HOH459      0.0000
    159  O        -46.4550  -25.5220    0.0650 O.3   460  HOH460      0.0000
    160  O        -46.4890  -40.7990    3.7510 O.3   461  HOH461      0.0000
    161  O        -29.6930  -22.9130   19.2350 O.3   462  HOH462      0.0000
    162  O        -31.6420  -13.0680    0.7880 O.3   463  HOH463      0.0000
    163  O        -52.0110  -21.1930   -2.3590 O.3   464  HOH464      0.0000
    164  O        -59.2320  -13.8100    3.5760 O.3   465  HOH465      0.0000
    165  O        -49.4480  -26.0400  -14.2280 O.3   466  HOH466      0.0000
    166  O        -28.2620  -25.9960   17.3120 O.3   467  HOH467      0.0000
    167  O        -49.4090  -22.1340   -1.7640 O.3   468  HOH468      0.0000
    168  O        -35.7050  -23.6720  -14.4490 O.3   469  HOH469      0.0000
    169  O        -28.3520  -14.6620   11.3860 O.3   470  HOH470      0.0000
    170  O        -34.7590  -43.3850    6.1100 O.3   471  HOH471      0.0000
    171  O        -44.1020  -30.3950    4.2830 O.3   472  HOH472      0.0000
    172  O        -42.6910  -14.7320  -11.9640 O.3   473  HOH473      0.0000
    173  O        -52.6610  -18.9900   -3.9550 O.3   474  HOH474      0.0000
    174  O        -22.2450  -21.2950   -3.0140 O.3   475  HOH475      0.0000
    175  O        -51.6710  -16.5200   -5.4520 O.3   476  HOH476      0.0000
    176  O        -28.4410  -11.9510   11.6640 O.3   477  HOH477      0.0000
    177  O        -36.8640  -40.6530   12.3940 O.3   478  HOH478      0.0000
    178  O        -27.1000  -24.5550   -4.2880 O.3   479  HOH479      0.0000
    179  O        -53.8150  -20.0590   19.9420 O.3   480  HOH480      0.0000
    180  O        -59.0080  -19.7600    8.6420 O.3   481  HOH481      0.0000
    181  O        -53.9780  -12.3520   -6.3020 O.3   482  HOH482      0.0000
    182  O        -34.9750  -42.7000    7.9790 O.3   483  HOH483      0.0000
    183  O        -48.5270  -37.7910    5.3670 O.3   484  HOH484      0.0000
    184  O        -56.0740  -17.4890   -0.5000 O.3   485  HOH485      0.0000
    185  O        -22.8900  -28.6930    4.4970 O.3   486  HOH486      0.0000
    186  O        -28.5800  -26.6800  -10.4110 O.3   487  HOH487      0.0000
    187  O        -46.7210  -26.4330  -15.8990 O.3   488  HOH488      0.0000
    188  O        -55.2290  -25.6760   12.2070 O.3   489  HOH489      0.0000
    189  O        -49.6700  -22.5200   -4.9960 O.3   490  HOH490      0.0000
    190  O        -58.1220  -20.8940    6.3250 O.3   491  HOH491      0.0000
    191  O        -44.4920   -8.6570   14.3730 O.3   492  HOH492      0.0000
    192  O        -31.0340  -32.3630   17.1350 O.3   493  HOH493      0.0000
    193  O        -55.2100  -18.5720   -2.9400 O.3   494  HOH494      0.0000
    194  O        -51.9440  -10.1020   15.6960 O.3   495  HOH495      0.0000
    195  O        -22.9230  -25.5870   -4.2870 O.3   496  HOH496      0.0000
    196  O        -32.8420  -16.6750   17.2940 O.3   497  HOH497      0.0000
    197  O        -56.5500  -28.5420   11.3350 O.3   498  HOH498      0.0000
    198  O        -26.3610  -21.9540   -7.8760 O.3   499  HOH499      0.0000
    199  O        -53.4530    0.6470    1.6700 O.3   500  HOH500      0.0000
    200  O        -29.3160  -33.4240   -5.4840 O.3   501  HOH501      0.0000
    201  O        -37.4570   -4.8110   -2.5380 O.3   502  HOH502      0.0000
    202  O        -28.6550  -34.4890   -3.0120 O.3   503  HOH503      0.0000
    203  O        -43.7850  -10.8390   19.8020 O.3   504  HOH504      0.0000
    204  O        -39.6410   -6.4530   -3.3540 O.3   505  HOH505      0.0000
    205  O        -40.4050   -3.6300    0.3330 O.3   506  HOH506      0.0000
    206  O        -32.5890  -28.3720  -11.4830 O.3   507  HOH507      0.0000
    207  O        -43.9060  -29.2450    1.6040 O.3   508  HOH508      0.0000
    208  O        -27.3240  -28.7050   -6.2100 O.3   509  HOH509      0.0000
    209  O        -39.9530  -23.9500   25.2700 O.3   510  HOH510      0.0000
    210  O        -34.0850  -30.4150  -10.0130 O.3   511  HOH511      0.0000
    211  O        -56.2360  -21.2660   -3.2490 O.3   512  HOH512      0.0000
    212  O        -37.7650  -28.4660  -10.8760 O.3   513  HOH513      0.0000
    213  O        -24.8460  -22.5150   -6.8160 O.3   514  HOH514      0.0000
    214  O        -54.8080    0.1570   -0.7930 O.3   515  HOH515      0.0000
    215  O        -38.0810  -32.4830  -11.3560 O.3   516  HOH516      0.0000
    216  O        -28.0450  -26.3160   -7.8730 O.3   517  HOH517      0.0000
    217  O        -45.1250  -13.3850   20.0070 O.3   518  HOH518      0.0000
    218  O        -31.3880  -20.9120   20.3060 O.3   521  HOH521      0.0000
    219  O        -46.7950   -5.1790    8.3370 O.3   522  HOH522      0.0000
    220  O        -61.5330  -25.7210   11.0660 O.3   523  HOH523      0.0000
    221  O        -33.4080  -25.2200  -14.6490 O.3   524  HOH524      0.0000
    222  O        -43.8550  -12.9790   -9.8160 O.3   525  HOH525      0.0000
    223  O        -22.0250  -24.4390    4.9530 O.3   526  HOH526      0.0000
    224  O        -38.7280   -6.1450    3.8010 O.3   527  HOH527      0.0000
    225  O        -46.4580  -29.9490    0.9790 O.3   528  HOH528      0.0000
    226  O        -39.6560  -15.8030  -11.5050 O.3   529  HOH529      0.0000
    227  O        -44.1330   -3.9260   -7.1980 O.3   530  HOH530      0.0000
    228  O        -19.0680  -30.3590    9.6870 O.3   532  HOH532      0.0000
    229  O        -20.2090  -22.4530    0.3120 O.3   533  HOH533      0.0000
    230  O        -23.0880  -24.7230   16.0170 O.3   534  HOH534      0.0000
    231  O        -61.2610  -23.8270    7.0410 O.3   535  HOH535      0.0000
    232  O        -53.8000  -10.6320   -5.3120 O.3   536  HOH536      0.0000
    233  O        -36.7760  -15.7930  -14.5300 O.3   537  HOH537      0.0000
    234  O        -21.0220  -28.2470    6.4900 O.3   538  HOH538      0.0000
    235  O        -28.2870  -23.9200   -6.5860 O.3   539  HOH539      0.0000
    236  O        -37.7630   -6.9830    8.3160 O.3   541  HOH541      0.0000
    237  O        -20.6560  -21.3220    2.5190 O.3   542  HOH542      0.0000
    238  O        -42.2190  -31.6400    1.8700 O.3   543  HOH543      0.0000
    239  O        -38.6530  -13.7940  -11.1620 O.3   544  HOH544      0.0000
    240  O        -53.6410  -28.2200    8.2150 O.3   545  HOH545      0.0000
    241  O        -44.4630   -4.8110    7.3230 O.3   547  HOH547      0.0000
    242  O        -48.7840  -29.8740    4.8000 O.3   548  HOH548      0.0000
    243  O        -58.4300   -6.3650    7.4430 O.3   549  HOH549      0.0000
    244  O        -60.9350  -23.3710    9.7530 O.3   550  HOH550      0.0000
    245  O        -24.9670  -17.8750   12.8370 O.3   553  HOH553      0.0000
    246  O        -47.0890  -30.5090    3.3370 O.3   554  HOH554      0.0000
    247  O        -20.3250  -22.3860    5.2040 O.3   555  HOH555      0.0000
    248  O        -37.8140   -7.8920   10.8550 O.3   556  HOH556      0.0000
    249  O        -52.9000  -29.4990    5.7990 O.3   557  HOH557      0.0000
    250  O        -37.6160  -27.0170  -13.2200 O.3   559  HOH559      0.0000
    251  O        -33.8460  -27.7520  -13.8190 O.3   561  HOH561      0.0000
    252  O        -28.4380   12.0110   11.6980 O.3   201  HOH201      0.0000
    253  O        -32.3230    2.0090   18.7100 O.3   202  HOH202      0.0000
    254  O        -31.2140   12.3330  -18.5230 O.3   203  HOH203      0.0000
    255  O        -21.9860  -14.5520    6.2850 O.3   204  HOH204      0.0000
    256  O         -1.0840    4.6140  -10.3170 O.3   205  HOH205      0.0000
    257  O        -30.8760    8.5640  -19.3910 O.3   206  HOH206      0.0000
    258  O         -2.8230  -16.5500  -14.5560 O.3   207  HOH207      0.0000
    259  O        -26.9150    6.8150  -19.2020 O.3   208  HOH208      0.0000
    260  O         -9.6960  -14.1440   -7.3230 O.3   209  HOH209      0.0000
    261  O        -31.4180   13.8280    9.1980 O.3   210  HOH210      0.0000
    262  O        -21.6760    4.9370  -18.9550 O.3   211  HOH211      0.0000
    263  O        -22.8250   -2.5780   13.8210 O.3   212  HOH212      0.0000
    264  O        -41.1560    6.0490    8.0220 O.3   213  HOH213      0.0000
    265  O         -5.0370   -6.1940    0.6140 O.3   214  HOH214      0.0000
    266  O        -32.7010  -13.6360   -7.0270 O.3   215  HOH215      0.0000
    267  O        -19.9190   13.3360    5.8820 O.3   216  HOH216      0.0000
    268  O        -37.4830    3.7680   16.3910 O.3   217  HOH217      0.0000
    269  O         -1.0980   -8.4090   -7.8090 O.3   218  HOH218      0.0000
    270  O        -25.6850   14.8350    7.6250 O.3   219  HOH219      0.0000
    271  O        -24.6790   12.0390    7.6960 O.3   220  HOH220      0.0000
    272  O        -17.4190    7.7650  -13.8440 O.3   221  HOH221      0.0000
    273  O        -35.0530   10.0890   -8.0380 O.3   222  HOH222      0.0000
    274  O         -9.4630    0.7080    7.6620 O.3   223  HOH223      0.0000
    275  O        -38.3050    6.3850    0.8970 O.3   224  HOH224      0.0000
    276  O         -8.5000   -2.6030  -16.7890 O.3   225  HOH225      0.0000
    277  O        -23.5520  -10.3390  -17.4180 O.3   226  HOH226      0.0000
    278  O        -19.1040   14.2620   -7.2710 O.3   227  HOH227      0.0000
    279  O         -3.3560  -14.1890   -7.3990 O.3   228  HOH228      0.0000
    280  O        -24.7420   -7.1790  -17.2240 O.3   229  HOH229      0.0000
    281  O        -10.2900  -14.7270    0.3350 O.3   230  HOH230      0.0000
    282  O        -16.1460   10.0450    1.2330 O.3   231  HOH231      0.0000
    283  O         -5.2320   -2.8900  -14.1940 O.3   232  HOH232      0.0000
    284  O        -19.8350    3.8450  -16.9860 O.3   233  HOH233      0.0000
    285  O        -15.2210  -16.6940   -0.9920 O.3   234  HOH234      0.0000
    286  O        -18.1120  -14.4650    4.7430 O.3   235  HOH235      0.0000
    287  O        -28.1820   13.0350  -11.4720 O.3   236  HOH236      0.0000
    288  O         -7.9860   -9.8520   -6.4920 O.3   237  HOH237      0.0000
    289  O        -28.3530   -3.8040   14.8890 O.3   238  HOH238      0.0000
    290  O         -2.2480  -13.1410  -13.9700 O.3   239  HOH239      0.0000
    291  O        -15.6270  -13.4790    5.0480 O.3   240  HOH240      0.0000
    292  O        -24.2840   18.1880   -4.2100 O.3   241  HOH241      0.0000
    293  O        -17.5130   11.8790   -5.4370 O.3   242  HOH242      0.0000
    294  O        -37.2280    5.3810   -5.8570 O.3   243  HOH243      0.0000
    295  O        -37.0640    0.1940    3.0220 O.3   244  HOH244      0.0000
    296  O        -23.9980   -1.4650  -20.2520 O.3   245  HOH245      0.0000
    297  O        -36.4050   -9.3100   -2.2550 O.3   246  HOH246      0.0000
    298  O         -0.8550    0.6250   -9.8690 O.3   247  HOH247      0.0000
    299  O        -16.5990    0.1450    0.0230 O.3   248  HOH248      0.0000
    300  O        -18.4200  -18.9310   -0.5870 O.3   249  HOH249      0.0000
    301  O        -32.2160   12.9750   12.8680 O.3   250  HOH250      0.0000
    302  O        -34.7950   -2.9840   13.8490 O.3   251  HOH251      0.0000
    303  O        -42.8320    2.0160   14.0790 O.3   252  HOH252      0.0000
    304  O        -38.3850    1.2390   -0.3470 O.3   253  HOH253      0.0000
    305  O        -31.4440    6.3710    0.2730 O.3   254  HOH254      0.0000
    306  O        -27.9720   11.0600  -13.5810 O.3   255  HOH255      0.0000
    307  O        -13.6420   12.4030   -6.9700 O.3   256  HOH256      0.0000
    308  O        -17.6550   12.8160   -7.2160 O.3   257  HOH257      0.0000
    309  O        -33.5030   -4.9790    6.9440 O.3   258  HOH258      0.0000
    310  O         -1.1390   -1.2790   -7.4890 O.3   259  HOH259      0.0000
    311  O        -25.8770  -10.1140   12.1930 O.3   260  HOH260      0.0000
    312  O        -35.2290   -1.9820   -8.0130 O.3   261  HOH261      0.0000
    313  O        -24.7090  -16.0200  -12.3690 O.3   262  HOH262      0.0000
    314  O         -1.2040   -8.0330   -5.4600 O.3   263  HOH263      0.0000
    315  O        -33.2750   -4.8810    1.0550 O.3   264  HOH264      0.0000
    316  O         -0.5920  -11.5880  -10.6620 O.3   265  HOH265      0.0000
    317  O        -19.0340   -1.7930    3.4200 O.3   266  HOH266      0.0000
    318  O        -21.5320   -1.7380    4.6120 O.3   267  HOH267      0.0000
    319  O        -37.9050    7.3090    5.1490 O.3   268  HOH268      0.0000
    320  O        -37.1250   -2.8370    6.3780 O.3   269  HOH269      0.0000
    321  O        -33.7760   13.7890   -3.3330 O.3   270  HOH270      0.0000
    322  O        -13.7410   11.6690   -8.8290 O.3   271  HOH271      0.0000
    323  O        -28.6730  -13.5320    3.3970 O.3   272  HOH272      0.0000
    324  O        -31.6570   -4.0440  -10.7920 O.3   273  HOH273      0.0000
    325  O         -8.7420   -6.9460    7.8640 O.3   274  HOH274      0.0000
    326  O         -2.1400  -13.8280   -9.9350 O.3   275  HOH275      0.0000
    327  O        -21.2740   -4.9330  -19.4940 O.3   276  HOH276      0.0000
    328  O        -31.6230   -9.8780    3.3750 O.3   277  HOH277      0.0000
    329  O        -20.9040   -2.5010   10.0990 O.3   278  HOH278      0.0000
    330  O        -12.0570   -1.2230  -16.3550 O.3   279  HOH279      0.0000
    331  O        -19.1900  -14.6840  -10.0830 O.3   280  HOH280      0.0000
    332  O        -20.0040   13.2620   -3.1080 O.3   281  HOH281      0.0000
    333  O        -19.7250   -9.4630   14.6120 O.3   282  HOH282      0.0000
    334  O         -4.4160    6.6080   -7.5350 O.3   283  HOH283      0.0000
    335  O        -34.4870   -2.0100   10.1280 O.3   284  HOH284      0.0000
    336  O        -30.5770    7.1640   11.8100 O.3   285  HOH285      0.0000
    337  O        -43.9240    5.4660   10.9200 O.3   286  HOH286      0.0000
    338  O        -27.3890  -10.8840    8.8100 O.3   287  HOH287      0.0000
    339  O        -33.3400   -5.9640   -1.4820 O.3   288  HOH288      0.0000
    340  O        -26.4550  -12.5890  -13.8220 O.3   289  HOH289      0.0000
    341  O        -35.1860   13.1440    2.1470 O.3   290  HOH290      0.0000
    342  O        -11.8530    3.8330  -15.8050 O.3   291  HOH291      0.0000
    343  O        -28.6310   -1.0120  -11.4410 O.3   292  HOH292      0.0000
    344  O        -15.6900    4.9350   -6.1650 O.3   293  HOH293      0.0000
    345  O        -35.7640   12.5670    9.2000 O.3   294  HOH294      0.0000
    346  O        -13.5900  -15.9280  -14.0140 O.3   295  HOH295      0.0000
    347  O        -21.6090    3.6640    6.6120 O.3   296  HOH296      0.0000
    348  O        -14.8050    2.4940   10.6180 O.3   297  HOH297      0.0000
    349  O        -22.1420  -16.5900  -12.1790 O.3   298  HOH298      0.0000
    350  O        -34.2840   -2.1920  -14.1820 O.3   299  HOH299      0.0000
    351  O        -32.3710   -5.4770   13.2230 O.3   300  HOH300      0.0000
    352  O        -10.9890   -9.4840  -18.4610 O.3   301  HOH301      0.0000
    353  O        -38.8430   -3.3220   12.5370 O.3   302  HOH302      0.0000
    354  O        -29.1050  -10.8620  -13.2240 O.3   303  HOH303      0.0000
    355  O         -6.7640    6.8300   -8.8660 O.3   304  HOH304      0.0000
    356  O         -9.6920   -1.9400    4.5700 O.3   305  HOH305      0.0000
    357  O        -21.5190  -16.4370   -7.2390 O.3   306  HOH306      0.0000
    358  O        -20.9250   11.7910  -14.1380 O.3   307  HOH307      0.0000
    359  O        -22.3040   13.2900    3.7990 O.3   308  HOH308      0.0000
    360  O        -17.6850  -16.8290  -14.8880 O.3   309  HOH309      0.0000
    361  O        -31.6350   -7.6050   -0.7340 O.3   310  HOH310      0.0000
    362  O        -24.3820    4.3470    6.7140 O.3   311  HOH311      0.0000
    363  O        -19.3410    4.0450    3.8740 O.3   312  HOH312      0.0000
    364  O        -12.5620  -17.2770   -9.2420 O.3   313  HOH313      0.0000
    365  O        -35.2130    2.7320  -23.2270 O.3   314  HOH314      0.0000
    366  O        -34.0010    8.1840   13.7720 O.3   315  HOH315      0.0000
    367  O        -16.6790   -6.1680  -19.8220 O.3   316  HOH316      0.0000
    368  O        -11.0090    0.9810  -15.2320 O.3   317  HOH317      0.0000
    369  O        -26.1840   -6.8590   13.8880 O.3   318  HOH318      0.0000
    370  O         -3.9600    1.5420   -2.9120 O.3   319  HOH319      0.0000
    371  O        -33.5870   -4.1440   -8.7910 O.3   320  HOH320      0.0000
    372  O        -16.9350    0.2420    2.7060 O.3   321  HOH321      0.0000
    373  O        -28.4320    8.6220  -12.0050 O.3   322  HOH322      0.0000
    374  O        -27.3410   15.7370   -9.5780 O.3   323  HOH323      0.0000
    375  O        -15.0540   -0.3100   -3.9510 O.3   324  HOH324      0.0000
    376  O        -32.1430   -1.8120  -17.7640 O.3   325  HOH325      0.0000
    377  O        -30.8340   18.3180    5.5050 O.3   326  HOH326      0.0000
    378  O        -29.0300   -0.8330   19.0130 O.3   327  HOH327      0.0000
    379  O         -9.7930  -11.5540   -5.1610 O.3   328  HOH328      0.0000
    380  O        -34.1720   -6.5780   -9.9970 O.3   329  HOH329      0.0000
    381  O         -8.7750    8.2730   -8.0680 O.3   330  HOH330      0.0000
    382  O        -14.1920    9.0900    5.2960 O.3   331  HOH331      0.0000
    383  O        -10.8080   -9.3120    5.2770 O.3   332  HOH332      0.0000
    384  O        -15.1480    8.1700  -12.2910 O.3   333  HOH333      0.0000
    385  O        -24.1450   18.4820   -0.1060 O.3   334  HOH334      0.0000
    386  O        -22.9220  -18.4480   -2.7670 O.3   335  HOH335      0.0000
    387  O        -36.3460   -2.6410    2.1110 O.3   336  HOH336      0.0000
    388  O         -2.7000  -10.4110  -13.8250 O.3   337  HOH337      0.0000
    389  O        -19.7920    0.2500   10.3580 O.3   338  HOH338      0.0000
    390  O        -29.1710   15.3910    8.9740 O.3   339  HOH339      0.0000
    391  O        -13.8430   -7.1020  -20.3110 O.3   340  HOH340      0.0000
    392  O        -23.3820  -18.0740   -5.5020 O.3   341  HOH341      0.0000
    393  O        -31.6240   -6.0250    8.6930 O.3   342  HOH342      0.0000
    394  O        -22.9680   -1.1770   11.4790 O.3   343  HOH343      0.0000
    395  O        -35.0670   -5.9880  -12.5720 O.3   344  HOH344      0.0000
    396  O        -19.5460    5.2750    6.5840 O.3   345  HOH345      0.0000
    397  O        -31.9930   -7.6600    5.1000 O.3   346  HOH346      0.0000
    398  O         -9.8720   -1.2290    0.7750 O.3   347  HOH347      0.0000
    399  O        -31.0780   14.9080   -3.8430 O.3   348  HOH348      0.0000
    400  O        -11.5810    7.0600   -9.9850 O.3   349  HOH349      0.0000
    401  O        -19.9210    2.8170    8.9820 O.3   350  HOH350      0.0000
    402  O        -31.7830    9.2520  -21.5020 O.3   351  HOH351      0.0000
    403  O         -8.1210    1.4290  -15.3180 O.3   352  HOH352      0.0000
    404  O        -32.4960    4.2390  -13.1410 O.3   353  HOH353      0.0000
    405  O        -16.9630    3.1140    2.7690 O.3   354  HOH354      0.0000
    406  O        -20.8970    7.4610   10.4730 O.3   355  HOH355      0.0000
    407  O        -24.5360    2.3650   13.0880 O.3   356  HOH356      0.0000
    408  O          0.7930   -7.2400   -9.3490 O.3   357  HOH357      0.0000
    409  O        -13.1720  -10.5320   11.8580 O.3   358  HOH358      0.0000
    410  O         -1.4340  -15.5050  -11.5870 O.3   359  HOH359      0.0000
    411  O        -29.4560   -7.4700  -15.7040 O.3   360  HOH360      0.0000
    412  O        -29.7540  -11.3980    1.8020 O.3   361  HOH361      0.0000
    413  O        -22.2310   16.1460    3.4280 O.3   362  HOH362      0.0000
    414  O        -32.1190   -5.9280  -15.5360 O.3   363  HOH363      0.0000
    415  O        -17.7740  -16.6310    0.1270 O.3   364  HOH364      0.0000
    416  O        -27.2010   -3.5060  -17.7110 O.3   365  HOH365      0.0000
    417  O         -0.9130   -3.9650   -8.3890 O.3   366  HOH366      0.0000
    418  O        -34.0740   -9.7970    8.3900 O.3   367  HOH367      0.0000
    419  O        -35.8820   -8.3430   -8.8590 O.3   368  HOH368      0.0000
    420  O        -35.1370  -10.6620   -8.1360 O.3   369  HOH369      0.0000
    421  O         -7.1520   -0.3240  -16.9550 O.3   370  HOH370      0.0000
    422  O        -36.1640   11.3270   11.6220 O.3   371  HOH371      0.0000
    423  O        -26.3070   12.2750   11.0880 O.3   372  HOH372      0.0000
    424  O        -27.4010   -6.4220  -17.3030 O.3   373  HOH373      0.0000
    425  O          0.0180   -4.5080  -10.4610 O.3   374  HOH374      0.0000
    426  O        -22.2910   -5.9240   15.8430 O.3   375  HOH375      0.0000
    427  O        -37.1390   12.2280    3.8190 O.3   376  HOH376      0.0000
    428  O        -21.2480    6.2400   12.3990 O.3   377  HOH377      0.0000
    429  O        -20.7200  -21.2100    7.5080 O.3   378  HOH378      0.0000
    430  O        -24.5090   17.1290    2.3530 O.3   379  HOH379      0.0000
    431  O        -23.4730   -3.1380   15.8340 O.3   380  HOH380      0.0000
    432  O        -22.8290   12.5560  -15.6030 O.3   381  HOH381      0.0000
    433  O        -22.3610   10.0320   10.9040 O.3   382  HOH382      0.0000
    434  O        -37.0130    9.0780   -6.9220 O.3   383  HOH383      0.0000
    435  O        -35.5790   -4.1760   10.7620 O.3   384  HOH384      0.0000
    436  O        -14.1240  -15.3890    6.3060 O.3   385  HOH385      0.0000
    437  O        -38.7840    9.7450    3.9080 O.3   386  HOH386      0.0000
    438  O        -17.2330   18.5110   -0.7230 O.3   387  HOH387      0.0000
    439  O        -12.2140    3.2370   11.9710 O.3   388  HOH388      0.0000
    440  O        -21.2770   15.2530   -5.0070 O.3   389  HOH389      0.0000
    441  O        -33.8670   14.6080    9.9450 O.3   390  HOH390      0.0000
    442  O        -35.6610   -8.1780    9.8780 O.3   391  HOH391      0.0000
    443  O        -36.4800   11.8300    0.1430 O.3   392  HOH392      0.0000
    444  O        -31.4450    7.6170   14.1870 O.3   393  HOH393      0.0000
    445  O        -33.0320   -4.3010  -13.2080 O.3   394  HOH394      0.0000
    446  O        -37.5980   -4.3650    8.7380 O.3   395  HOH395      0.0000
    447  O        -16.1940   11.6420  -14.5200 O.3   396  HOH396      0.0000
    448  O        -23.6620  -15.7950  -14.7000 O.3   397  HOH397      0.0000
    449  O         -1.6430    0.7570   -3.5910 O.3   398  HOH398      0.0000
    450  O        -21.5710   -7.8060   14.0900 O.3   399  HOH399      0.0000
    451  O        -21.2300   17.4560    5.7490 O.3   400  HOH400      0.0000
    452  O        -25.1500   -0.1870  -22.4920 O.3   401  HOH401      0.0000
    453  O        -15.5000   10.9380  -12.1190 O.3   402  HOH402      0.0000
    454  O        -27.6650   -1.7280   17.0610 O.3   403  HOH403      0.0000
    455  O        -31.8300   18.8320    7.8400 O.3   404  HOH404      0.0000
    456  O        -17.8500    4.2260    9.4780 O.3   405  HOH405      0.0000
    457  O        -38.9760    5.9080    3.2640 O.3   406  HOH406      0.0000
    458  O        -33.8810   -6.3270   10.7840 O.3   407  HOH407      0.0000
    459  O        -38.6460    4.5170    4.8910 O.3   408  HOH408      0.0000
    460  O        -18.5990  -19.8800    2.2550 O.3   409  HOH409      0.0000
    461  O        -36.7550   -4.3540    4.1360 O.3   410  HOH410      0.0000
    462  O        -27.1860   14.7720    9.9540 O.3   411  HOH411      0.0000
    463  O        -21.5450  -18.1970   -9.3850 O.3   412  HOH412      0.0000
    464  O        -21.5770   19.3000   -0.9430 O.3   413  HOH413      0.0000
    465  O        -20.8410  -11.8530   14.9720 O.3   414  HOH414      0.0000
    466  O        -30.2500   -4.5940   16.5410 O.3   415  HOH415      0.0000
    467  O        -10.6820   -8.9590    7.8620 O.3   416  HOH416      0.0000
    468  O         -9.3130  -11.4850    5.1120 O.3   417  HOH417      0.0000
    469  O        -37.7740   -2.6340   -4.1920 O.3   418  HOH418      0.0000
    470  O         -5.8940    7.8720  -11.4430 O.3   419  HOH419      0.0000
    471  O        -14.4740    8.5080    7.9430 O.3   420  HOH420      0.0000
    472  O        -39.0660   -0.6670   -2.4870 O.3   421  HOH421      0.0000
    473  O        -34.4870   16.1780    2.6840 O.3   422  HOH422      0.0000
    474  O        -19.4290    3.9480   13.1330 O.3   423  HOH423      0.0000
    475  O        -38.6570   10.2530    1.9910 O.3   424  HOH424      0.0000
    476  O        -34.5580   -3.5070   16.5470 O.3   425  HOH425      0.0000
    477  O        -36.3500   -3.1430   -9.5260 O.3   426  HOH426      0.0000
    478  O        -30.5690    9.7340  -23.9800 O.3   427  HOH427      0.0000
    479  O        -39.0680    2.4950    3.6590 O.3   428  HOH428      0.0000
    480  O        -23.5850  -20.5060   -6.9480 O.3   429  HOH429      0.0000
    481  O        -35.4340   15.4030   -1.9700 O.3   430  HOH430      0.0000
    482  O        -24.1030   -8.9760   14.2120 O.3   431  HOH431      0.0000
    483  O        -37.7720   -3.6970   -0.1030 O.3   432  HOH432      0.0000
    484  O        -24.9560   -4.3280   15.1290 O.3   433  HOH433      0.0000
    485  O        -25.4270  -18.5780  -11.2840 O.3   434  HOH434      0.0000
    486  O        -12.5620   -0.2170   -3.1930 O.3   435  HOH435      0.0000
    487  O        -17.5740   13.7680   -1.9730 O.3   437  HOH437      0.0000
    488  O        -38.5760   13.6910    5.8010 O.3   438  HOH438      0.0000
    489  O        -17.3370  -16.4470    3.0720 O.3   439  HOH439      0.0000
    490  O        -10.9500  -17.6340   -0.0550 O.3   440  HOH440      0.0000
    491  O        -28.1660  -10.5870   13.6640 O.3   441  HOH441      0.0000
    492  O        -34.2700   17.4110    0.2420 O.3   442  HOH442      0.0000
    493  O        -10.9440  -10.0350   10.3380 O.3   443  HOH443      0.0000
    494  O        -13.6140    6.3040    9.4420 O.3   444  HOH444      0.0000
    495  O        -23.6000  -19.8550   -9.6950 O.3   445  HOH445      0.0000
    496  O        -17.7610   16.4290   -2.9390 O.3   446  HOH446      0.0000
    497  O        -32.5700   -3.5400   17.9290 O.3   447  HOH447      0.0000
    498  O        -24.1490    1.5190   16.0300 O.3   449  HOH449      0.0000
@<TRIPOS>BOND
